*Heading
** Job name: structural_shell_buckle Model name: structural_shell_buckle
** Generated by: Abaqus/CAE 2020
*Preprint, echo=NO, model=NO, history=NO, contact=NO
**
**==============================================================================
**          HAMK University of Applied Scince 
**                                 
**          Numerical analaysis techniques for structural fire safety design of steel structures
**          FE-SFS prject 
**          
**          HAMK TECH Research Unit	
**                            
**          Readable input files
**          
**==============================================================================
**
**          Case example:   Restrained column (case 3)    
**          Analyses types:  Buckling Analyses               
**          Element types: shell element
**==============================================================================
**===============================================================================
** PARTS
**
*Part, name=column
*End Part
**  
*Part, name=discrete_point_1
*End Part
**  
*Part, name=discrete_point_endspring
*End Part
**  
*Part, name=discrete_point_loading_point
*End Part
**  
*Part, name=lower_plate
*End Part
**  
*Part, name=upper_plate
*End Part
**  
**
** ASSEMBLY
**
*Assembly, name=Assembly
**  
*Instance, name=column-1, part=column
        -38.,        1800.,         -60.
        -38.,        1800.,         -60., -36.9999999873119,        1800.,         -60., 89.9999992730282
*Node
      1,          76.,           0.,          25.
      2,          38.,           0.,          25.
      3,          38.,           0.,           0.
      4,          76.,           0.,           0.
      5,           0.,           0.,          25.
      6,          38.,           0.,        1775.
      7,           0.,           0.,        1775.
      8,          38.,         120.,          25.
      9,          38.,         120.,        1775.
     10,           0.,         120.,          25.
     11,           0.,         120.,        1775.
     12,          76.,         120.,          25.
     13,          76.,         120.,        1775.
     14,          38.,         120.,           0.
     15,          76.,         120.,           0.
     16,          38.,         120.,        1800.
     17,           0.,         120.,        1800.
     18,          38.,           0.,        1800.
     19,           0.,           0.,        1800.
     20,          76.,           0.,        1775.
** ... 1345 like lines cut
*Element, type=S4R
1,  1, 25, 26,  4
2, 25,  2,  3, 26
  3,   5,  27, 583, 202
  4,  27,   2,  28, 583
  5, 202, 583, 584, 201
  6, 583,  28,  29, 584
  7, 201, 584, 585, 200
  8, 584,  29,  30, 585
  9, 200, 585, 586, 199
 10, 585,  30,  31, 586
 11, 199, 586, 587, 198
 12, 586,  31,  32, 587
 13, 198, 587, 588, 197
 14, 587,  32,  33, 588
 15, 197, 588, 589, 196
 16, 588,  33,  34, 589
 17, 196, 589, 590, 195
 18, 589,  34,  35, 590
 19, 195, 590, 591, 194
 20, 590,  35,  36, 591
** ... 1240 like lines cut
*Nset, nset=web
    2,    3,    6,    8,    9,   14,   16,   18,   28,   29,   30,   31,   32,   33,   34,   35
   36,   37,   38,   39,   40,   41,   42,   43,   44,   45,   46,   47,   48,   49,   50,   51
   52,   53,   54,   55,   56,   57,   58,   59,   60,   61,   62,   63,   64,   65,   66,   67
   68,   69,   70,   71,   72,   73,   74,   75,   76,   77,   78,   79,   80,   81,   82,   83
   84,   85,   86,   87,   88,   89,   90,   91,   92,   93,   94,   95,   96,   97,   98,   99
  100,  101,  102,  103,  104,  105,  106,  107,  108,  109,  110,  111,  112,  113,  114,  203
  204,  205,  206,  207,  208,  209,  210,  211,  212,  213,  214,  215,  216,  217,  218,  219
  220,  221,  222,  223,  224,  225,  226,  227,  228,  229,  230,  231,  232,  233,  234,  235
  236,  237,  238,  239,  240,  241,  242,  243,  244,  245,  246,  247,  248,  249,  250,  251
  252,  253,  254,  255,  256,  257,  258,  259,  260,  261,  262,  263,  264,  265,  266,  267
  268,  269,  270,  271,  272,  273,  274,  275,  276,  277,  278,  279,  280,  281,  282,  283
  284,  285,  286,  287,  288,  289,  290,  291,  292,  293,  294,  295,  296,  297,  298,  299
  481,  482,  483,  484,  485,  576,  577,  578,  579,  580,  670,  671,  672,  673,  674,  675
  676,  677,  678,  679,  680,  681,  682,  683,  684,  685,  686,  687,  688,  689,  690,  691
  692,  693,  694,  695,  696,  697,  698,  699,  700,  701,  702,  703,  704,  705,  706,  707
  708,  709,  710,  711,  712,  713,  714,  715,  716,  717,  718,  719,  720,  721,  722,  723
  724,  725,  726,  727,  728,  729,  730,  731,  732,  733,  734,  735,  736,  737,  738,  739
  740,  741,  742,  743,  744,  745,  746,  747,  748,  749,  750,  751,  752,  753,  754,  755
  756,  757,  758,  759,  760,  761,  762,  763,  764,  765,  766,  767,  768,  769,  770,  771
  772,  773,  774,  775,  776,  777,  778,  779,  780,  781,  782,  783,  784,  785,  786,  787
** ... 20 like lines cut
*Elset, elset=web
  179,  180,  181,  182,  183,  184,  185,  186,  187,  188,  189,  190,  191,  192,  193,  194
  195,  196,  197,  198,  199,  200,  201,  202,  203,  204,  205,  206,  207,  208,  209,  210
  211,  212,  213,  214,  215,  216,  217,  218,  219,  220,  221,  222,  223,  224,  225,  226
  227,  228,  229,  230,  231,  232,  233,  234,  235,  236,  237,  238,  239,  240,  241,  242
  243,  244,  245,  246,  247,  248,  249,  250,  251,  252,  253,  254,  255,  256,  257,  258
  259,  260,  261,  262,  263,  264,  265,  266,  267,  268,  269,  270,  271,  272,  273,  274
  275,  276,  277,  278,  279,  280,  281,  282,  283,  284,  285,  286,  287,  288,  289,  290
  291,  292,  293,  294,  295,  296,  297,  298,  299,  300,  301,  302,  303,  304,  305,  306
  307,  308,  309,  310,  311,  312,  313,  314,  315,  316,  317,  318,  319,  320,  321,  322
  323,  324,  325,  326,  327,  328,  329,  330,  331,  332,  333,  334,  335,  336,  337,  338
  339,  340,  341,  342,  343,  344,  345,  346,  347,  348,  349,  350,  351,  352,  353,  354
  355,  356,  357,  358,  359,  360,  361,  362,  363,  364,  365,  366,  367,  368,  369,  370
  371,  372,  373,  374,  375,  376,  377,  378,  379,  380,  381,  382,  383,  384,  385,  386
  387,  388,  389,  390,  391,  392,  393,  394,  395,  396,  397,  398,  399,  400,  401,  402
  403,  404,  405,  406,  407,  408,  409,  410,  411,  412,  413,  414,  415,  416,  417,  418
  419,  420,  421,  422,  423,  424,  425,  426,  427,  428,  429,  430,  431,  432,  433,  434
  435,  436,  437,  438,  439,  440,  441,  442,  443,  444,  445,  446,  447,  448,  449,  450
  451,  452,  453,  454,  455,  456,  457,  458,  459,  460,  461,  462,  463,  464,  465,  466
  467,  468,  469,  470,  471,  472,  473,  474,  475,  476,  477,  478,  479,  480,  481,  482
  483,  484,  485,  486,  487,  488,  489,  490,  491,  492,  493,  494,  495,  496,  497,  498
** ... 14 like lines cut
*Nset, nset=upper_flange
    8,    9,   10,   11,   12,   13,   14,   15,   16,   17,   23,   24,  208,  209,  210,  211
  212,  213,  214,  215,  216,  217,  218,  219,  220,  221,  222,  223,  224,  225,  226,  227
  228,  229,  230,  231,  232,  233,  234,  235,  236,  237,  238,  239,  240,  241,  242,  243
  244,  245,  246,  247,  248,  249,  250,  251,  252,  253,  254,  255,  256,  257,  258,  259
  260,  261,  262,  263,  264,  265,  266,  267,  268,  269,  270,  271,  272,  273,  274,  275
  276,  277,  278,  279,  280,  281,  282,  283,  284,  285,  286,  287,  288,  289,  290,  291
  292,  293,  294,  300,  301,  302,  303,  304,  305,  306,  307,  308,  309,  310,  311,  312
  313,  314,  315,  316,  317,  318,  319,  320,  321,  322,  323,  324,  325,  326,  327,  328
  329,  330,  331,  332,  333,  334,  335,  336,  337,  338,  339,  340,  341,  342,  343,  344
  345,  346,  347,  348,  349,  350,  351,  352,  353,  354,  355,  356,  357,  358,  359,  360
  361,  362,  363,  364,  365,  366,  367,  368,  369,  370,  371,  372,  373,  374,  375,  376
  377,  378,  379,  380,  381,  382,  383,  384,  385,  386,  387,  388,  389,  390,  391,  392
  393,  394,  395,  396,  397,  398,  399,  400,  401,  402,  403,  404,  405,  406,  407,  408
  409,  410,  411,  412,  413,  414,  415,  416,  417,  418,  419,  420,  421,  422,  423,  424
  425,  426,  427,  428,  429,  430,  431,  432,  433,  434,  435,  436,  437,  438,  439,  440
  441,  442,  443,  444,  445,  446,  447,  448,  449,  450,  451,  452,  453,  454,  455,  456
  457,  458,  459,  460,  461,  462,  463,  464,  465,  466,  467,  468,  469,  470,  471,  472
  473,  474,  475,  476,  477,  478,  479,  581,  582, 1105, 1106, 1107, 1108, 1109, 1110, 1111
 1112, 1113, 1114, 1115, 1116, 1117, 1118, 1119, 1120, 1121, 1122, 1123, 1124, 1125, 1126, 1127
 1128, 1129, 1130, 1131, 1132, 1133, 1134, 1135, 1136, 1137, 1138, 1139, 1140, 1141, 1142, 1143
** ... 9 like lines cut
*Elset, elset=upper_flange
  707,  708,  709,  710,  711,  712,  713,  714,  715,  716,  717,  718,  719,  720,  721,  722
  723,  724,  725,  726,  727,  728,  729,  730,  731,  732,  733,  734,  735,  736,  737,  738
  739,  740,  741,  742,  743,  744,  745,  746,  747,  748,  749,  750,  751,  752,  753,  754
  755,  756,  757,  758,  759,  760,  761,  762,  763,  764,  765,  766,  767,  768,  769,  770
  771,  772,  773,  774,  775,  776,  777,  778,  779,  780,  781,  782,  783,  784,  785,  786
  787,  788,  789,  790,  791,  792,  793,  794,  795,  796,  797,  798,  799,  800,  801,  802
  803,  804,  805,  806,  807,  808,  809,  810,  811,  812,  813,  814,  815,  816,  817,  818
  819,  820,  821,  822,  823,  824,  825,  826,  827,  828,  829,  830,  831,  832,  833,  834
  835,  836,  837,  838,  839,  840,  841,  842,  843,  844,  845,  846,  847,  848,  849,  850
  851,  852,  853,  854,  855,  856,  857,  858,  859,  860,  861,  862,  863,  864,  865,  866
  867,  868,  869,  870,  871,  872,  873,  874,  875,  876,  877,  878,  879,  880,  881,  882
  883,  884,  885,  886,  887,  888,  889,  890,  891,  892,  893,  894,  895,  896,  897,  898
  899,  900,  901,  902,  903,  904,  905,  906,  907,  908,  909,  910,  911,  912,  913,  914
  915,  916,  917,  918,  919,  920,  921,  922,  923,  924,  925,  926,  927,  928,  929,  930
  931,  932,  933,  934,  935,  936,  937,  938,  939,  940,  941,  942,  943,  944,  945,  946
  947,  948,  949,  950,  951,  952,  953,  954,  955,  956,  957,  958,  959,  960,  961,  962
  963,  964,  965,  966,  967,  968,  969,  970,  971,  972,  973,  974,  975,  976,  977,  978
  979,  980,  981,  982,  983,  984,  985,  986,  987,  988,  989,  990,  991,  992,  993,  994
  995,  996,  997,  998,  999, 1000, 1001, 1002, 1003, 1004, 1005, 1006, 1007, 1008, 1009, 1010
 1011, 1012, 1013, 1014, 1015, 1016, 1017, 1018, 1019, 1020, 1021, 1022, 1023, 1024, 1025, 1026
 1027, 1028, 1029, 1030, 1031, 1032, 1033, 1034, 1035, 1036, 1037, 1038, 1039, 1040, 1041, 1042
 1043, 1044, 1045, 1046, 1047, 1048, 1049, 1050, 1051, 1052, 1053, 1054, 1055, 1056, 1057, 1058
 1059, 1060, 1061, 1062, 1257, 1258, 1259, 1260
*Nset, nset=lower_flange
    1,    2,    3,    4,    5,    6,    7,   18,   19,   20,   21,   22,   25,   26,   27,   28
   29,   30,   31,   32,   33,   34,   35,   36,   37,   38,   39,   40,   41,   42,   43,   44
   45,   46,   47,   48,   49,   50,   51,   52,   53,   54,   55,   56,   57,   58,   59,   60
   61,   62,   63,   64,   65,   66,   67,   68,   69,   70,   71,   72,   73,   74,   75,   76
   77,   78,   79,   80,   81,   82,   83,   84,   85,   86,   87,   88,   89,   90,   91,   92
   93,   94,   95,   96,   97,   98,   99,  100,  101,  102,  103,  104,  105,  106,  107,  108
  109,  110,  111,  112,  113,  114,  115,  116,  117,  118,  119,  120,  121,  122,  123,  124
  125,  126,  127,  128,  129,  130,  131,  132,  133,  134,  135,  136,  137,  138,  139,  140
  141,  142,  143,  144,  145,  146,  147,  148,  149,  150,  151,  152,  153,  154,  155,  156
  157,  158,  159,  160,  161,  162,  163,  164,  165,  166,  167,  168,  169,  170,  171,  172
  173,  174,  175,  176,  177,  178,  179,  180,  181,  182,  183,  184,  185,  186,  187,  188
  189,  190,  191,  192,  193,  194,  195,  196,  197,  198,  199,  200,  201,  202,  480,  486
  487,  488,  489,  490,  491,  492,  493,  494,  495,  496,  497,  498,  499,  500,  501,  502
  503,  504,  505,  506,  507,  508,  509,  510,  511,  512,  513,  514,  515,  516,  517,  518
  519,  520,  521,  522,  523,  524,  525,  526,  527,  528,  529,  530,  531,  532,  533,  534
  535,  536,  537,  538,  539,  540,  541,  542,  543,  544,  545,  546,  547,  548,  549,  550
  551,  552,  553,  554,  555,  556,  557,  558,  559,  560,  561,  562,  563,  564,  565,  566
  567,  568,  569,  570,  571,  572,  573,  574,  575,  583,  584,  585,  586,  587,  588,  589
  590,  591,  592,  593,  594,  595,  596,  597,  598,  599,  600,  601,  602,  603,  604,  605
  606,  607,  608,  609,  610,  611,  612,  613,  614,  615,  616,  617,  618,  619,  620,  621
** ... 9 like lines cut
*Elset, elset=lower_flange
    1,    2,    3,    4,    5,    6,    7,    8,    9,   10,   11,   12,   13,   14,   15,   16
   17,   18,   19,   20,   21,   22,   23,   24,   25,   26,   27,   28,   29,   30,   31,   32
   33,   34,   35,   36,   37,   38,   39,   40,   41,   42,   43,   44,   45,   46,   47,   48
   49,   50,   51,   52,   53,   54,   55,   56,   57,   58,   59,   60,   61,   62,   63,   64
   65,   66,   67,   68,   69,   70,   71,   72,   73,   74,   75,   76,   77,   78,   79,   80
   81,   82,   83,   84,   85,   86,   87,   88,   89,   90,   91,   92,   93,   94,   95,   96
   97,   98,   99,  100,  101,  102,  103,  104,  105,  106,  107,  108,  109,  110,  111,  112
  113,  114,  115,  116,  117,  118,  119,  120,  121,  122,  123,  124,  125,  126,  127,  128
  129,  130,  131,  132,  133,  134,  135,  136,  137,  138,  139,  140,  141,  142,  143,  144
  145,  146,  147,  148,  149,  150,  151,  152,  153,  154,  155,  156,  157,  158,  159,  160
  161,  162,  163,  164,  165,  166,  167,  168,  169,  170,  171,  172,  173,  174,  175,  176
  177,  178, 1063, 1064, 1071, 1072, 1073, 1074, 1075, 1076, 1077, 1078, 1079, 1080, 1081, 1082
 1083, 1084, 1085, 1086, 1087, 1088, 1089, 1090, 1091, 1092, 1093, 1094, 1095, 1096, 1097, 1098
 1099, 1100, 1101, 1102, 1103, 1104, 1105, 1106, 1107, 1108, 1109, 1110, 1111, 1112, 1113, 1114
 1115, 1116, 1117, 1118, 1119, 1120, 1121, 1122, 1123, 1124, 1125, 1126, 1127, 1128, 1129, 1130
 1131, 1132, 1133, 1134, 1135, 1136, 1137, 1138, 1139, 1140, 1141, 1142, 1143, 1144, 1145, 1146
 1147, 1148, 1149, 1150, 1151, 1152, 1153, 1154, 1155, 1156, 1157, 1158, 1159, 1160, 1161, 1162
 1163, 1164, 1165, 1166, 1167, 1168, 1169, 1170, 1171, 1172, 1173, 1174, 1175, 1176, 1177, 1178
 1179, 1180, 1181, 1182, 1183, 1184, 1185, 1186, 1187, 1188, 1189, 1190, 1191, 1192, 1193, 1194
 1195, 1196, 1197, 1198, 1199, 1200, 1201, 1202, 1203, 1204, 1205, 1206, 1207, 1208, 1209, 1210
 1211, 1212, 1213, 1214, 1215, 1216, 1217, 1218, 1219, 1220, 1221, 1222, 1223, 1224, 1225, 1226
 1227, 1228, 1229, 1230, 1231, 1232, 1233, 1234, 1235, 1236, 1237, 1238, 1239, 1240, 1241, 1242
 1243, 1244, 1245, 1246, 1247, 1248, 1249, 1250
** Section: Section-flange
*Shell Section, elset=lower_flange, material=steel_nonlinear
7.6, 5
** Section: Section-web
*Shell Section, elset=web, material=steel_nonlinear
4.2, 5
** Section: Section-flange
*Shell Section, elset=upper_flange, material=steel_nonlinear
7.6, 5
*End Instance
**  
*Instance, name=discrete_point_endspring-1, part=discrete_point_endspring
*Node
      1,           0.,        1950.,           0.
*Nset, nset=discrete_point_endspring-1-RefPt_, internal
1, 
*Nset, nset=Set-1
 1,
*Element, type=MASS, elset=Set-1_Inertia-1_
1, 1
*Mass, elset=Set-1_Inertia-1_
0.0001, 
*End Instance
**  
*Instance, name=discrete_point_loading_point-1, part=discrete_point_loading_point
*Node
      1,           0.,        1850.,           0.
*Nset, nset=discrete_point_loading_point-1-RefPt_, internal
1, 
*Nset, nset=Set-1
 1,
*Element, type=MASS, elset=Set-1_Inertia-1_
1, 1
*Mass, elset=Set-1_Inertia-1_
0.0001, 
*End Instance
**  
*Instance, name=lower_plate-1, part=lower_plate
       -375.,           0.,        -100.
*Node
      1,         337.,           0.,           0.
      2,         337.,           0.,          40.
      3,           0.,           0.,          40.
      4,           0.,           0.,           0.
      5,         413.,           0.,          40.
      6,         413.,           0.,           0.
      7,         750.,           0.,           0.
      8,         750.,           0.,          40.
      9,         375.,           0.,           0.
     10,         375.,           0.,          40.
     11,         337.,           0.,         100.
     12,           0.,           0.,         100.
     13,           0.,           0.,         160.
     14,         337.,           0.,         160.
     15,         337.,           0.,         200.
     16,           0.,           0.,         200.
     17,         750.,           0.,         100.
     18,         413.,           0.,         100.
     19,         375.,           0.,         100.
     20,         413.,           0.,         160.
** ... 409 like lines cut
*Element, type=S4R
 1,   1,  26, 226,  59
 2,  26,   2,  27, 226
 3,  59, 226, 227,  58
 4, 226,  27,  28, 227
 5,  58, 227, 228,  57
 6, 227,  28,  29, 228
 7,  57, 228, 229,  56
 8, 228,  29,  30, 229
 9,  56, 229, 230,  55
10, 229,  30,  31, 230
11,  55, 230, 231,  54
12, 230,  31,  32, 231
13,  54, 231, 232,  53
14, 231,  32,  33, 232
15,  53, 232, 233,  52
16, 232,  33,  34, 233
17,  52, 233, 234,  51
18, 233,  34,  35, 234
19,  51, 234, 235,  50
20, 234,  35,  36, 235
** ... 360 like lines cut
*Nset, nset=lower_plate, generate
   1,  429,    1
*Elset, elset=lower_plate, generate
   1,  380,    1
** Section: Section-plate
*Shell Section, elset=lower_plate, material=steel_linear
20., 5
*End Instance
**  
*Instance, name=upper_plate-1, part=upper_plate
       -375.,        1800.,        -100.
*Node
      1,         337.,           0.,           0.
      2,         337.,           0.,          40.
      3,           0.,           0.,          40.
      4,           0.,           0.,           0.
      5,         413.,           0.,          40.
      6,         413.,           0.,           0.
      7,         750.,           0.,           0.
      8,         750.,           0.,          40.
      9,         375.,           0.,           0.
     10,         375.,           0.,          40.
     11,         337.,           0.,         100.
     12,           0.,           0.,         100.
     13,           0.,           0.,         160.
     14,         337.,           0.,         160.
     15,         337.,           0.,         200.
     16,           0.,           0.,         200.
     17,         750.,           0.,         100.
     18,         413.,           0.,         100.
     19,         375.,           0.,         100.
     20,         413.,           0.,         160.
** ... 409 like lines cut
*Element, type=S4R
 1,   1,  26, 226,  59
 2,  26,   2,  27, 226
 3,  59, 226, 227,  58
 4, 226,  27,  28, 227
 5,  58, 227, 228,  57
 6, 227,  28,  29, 228
 7,  57, 228, 229,  56
 8, 228,  29,  30, 229
 9,  56, 229, 230,  55
10, 229,  30,  31, 230
11,  55, 230, 231,  54
12, 230,  31,  32, 231
13,  54, 231, 232,  53
14, 231,  32,  33, 232
15,  53, 232, 233,  52
16, 232,  33,  34, 233
17,  52, 233, 234,  51
18, 233,  34,  35, 234
19,  51, 234, 235,  50
20, 234,  35,  36, 235
** ... 360 like lines cut
*Nset, nset=upper_plate, generate
   1,  429,    1
*Elset, elset=upper_plate, generate
   1,  380,    1
** Section: Section-plate
*Shell Section, elset=upper_plate, material=steel_linear
20., 5
*End Instance
**  
*Instance, name=discrete_point_1-1, part=discrete_point_1
*Node
      1,           0.,         -50.,           0.
*Nset, nset=discrete_point_1-1-RefPt_, internal
1, 
*Nset, nset=Set-1
 1,
*Element, type=MASS, elset=Set-1_Inertia-1_
1, 1
*Mass, elset=Set-1_Inertia-1_
0.0001, 
*End Instance
**  
*Nset, nset=MPC_lower_plate, instance=lower_plate-1
   2,   5,  10,  14,  19,  20,  24,  96, 172, 174, 175, 214, 222, 223, 224
*Elset, elset=MPC_lower_plate, instance=lower_plate-1
  69,  71, 209, 211, 213, 215, 217, 218, 305, 307, 359, 360, 361, 364, 365, 366
 367, 369, 372, 374, 375, 376, 378, 380
*Nset, nset=MPC_upper_plate, instance=upper_plate-1
   2,   5,  10,  14,  19,  20,  24,  96, 172, 174, 175, 214, 222, 223, 224
*Elset, elset=MPC_upper_plate, instance=upper_plate-1
  69,  71, 209, 211, 213, 215, 217, 218, 305, 307, 359, 360, 361, 364, 365, 366
 367, 369, 372, 374, 375, 376, 378, 380
*Nset, nset=all_nodes, instance=column-1, generate
    1,  1365,     1
*Nset, nset=all_nodes, instance=lower_plate-1, generate
   1,  429,    1
*Nset, nset=all_nodes, instance=upper_plate-1, generate
   1,  429,    1
*Nset, nset=heatzone, instance=column-1
    1,    2,    5,    6,    7,    8,    9,   10,   11,   12,   13,   20,   25,   27,   28,   29
   30,   31,   32,   33,   34,   35,   36,   37,   38,   39,   40,   41,   42,   43,   44,   45
   46,   47,   48,   49,   50,   51,   52,   53,   54,   55,   56,   57,   58,   59,   60,   61
   62,   63,   64,   65,   66,   67,   68,   69,   70,   71,   72,   73,   74,   75,   76,   77
   78,   79,   80,   81,   82,   83,   84,   85,   86,   87,   88,   89,   90,   91,   92,   93
   94,   95,   96,   97,   98,   99,  100,  101,  102,  103,  104,  105,  106,  107,  108,  109
  110,  111,  112,  113,  114,  115,  116,  117,  118,  119,  120,  121,  122,  123,  124,  125
  126,  127,  128,  129,  130,  131,  132,  133,  134,  135,  136,  137,  138,  139,  140,  141
  142,  143,  144,  145,  146,  147,  148,  149,  150,  151,  152,  153,  154,  155,  156,  157
  158,  159,  160,  161,  162,  163,  164,  165,  166,  167,  168,  169,  170,  171,  172,  173
  174,  175,  176,  177,  178,  179,  180,  181,  182,  183,  184,  185,  186,  187,  188,  189
  190,  191,  192,  193,  194,  195,  196,  197,  198,  199,  200,  201,  202,  203,  204,  205
  206,  207,  208,  209,  210,  211,  212,  213,  214,  215,  216,  217,  218,  219,  220,  221
  222,  223,  224,  225,  226,  227,  228,  229,  230,  231,  232,  233,  234,  235,  236,  237
  238,  239,  240,  241,  242,  243,  244,  245,  246,  247,  248,  249,  250,  251,  252,  253
  254,  255,  256,  257,  258,  259,  260,  261,  262,  263,  264,  265,  266,  267,  268,  269
  270,  271,  272,  273,  274,  275,  276,  277,  278,  279,  280,  281,  282,  283,  284,  285
  286,  287,  288,  289,  290,  291,  292,  293,  294,  295,  296,  297,  298,  299,  300,  301
  302,  303,  304,  305,  306,  307,  308,  309,  310,  311,  312,  313,  314,  315,  316,  317
  318,  319,  320,  321,  322,  323,  324,  325,  326,  327,  328,  329,  330,  331,  332,  333
** ... 64 like lines cut
*Elset, elset=heatzone, instance=column-1
    3,    4,    5,    6,    7,    8,    9,   10,   11,   12,   13,   14,   15,   16,   17,   18
   19,   20,   21,   22,   23,   24,   25,   26,   27,   28,   29,   30,   31,   32,   33,   34
   35,   36,   37,   38,   39,   40,   41,   42,   43,   44,   45,   46,   47,   48,   49,   50
   51,   52,   53,   54,   55,   56,   57,   58,   59,   60,   61,   62,   63,   64,   65,   66
   67,   68,   69,   70,   71,   72,   73,   74,   75,   76,   77,   78,   79,   80,   81,   82
   83,   84,   85,   86,   87,   88,   89,   90,   91,   92,   93,   94,   95,   96,   97,   98
   99,  100,  101,  102,  103,  104,  105,  106,  107,  108,  109,  110,  111,  112,  113,  114
  115,  116,  117,  118,  119,  120,  121,  122,  123,  124,  125,  126,  127,  128,  129,  130
  131,  132,  133,  134,  135,  136,  137,  138,  139,  140,  141,  142,  143,  144,  145,  146
  147,  148,  149,  150,  151,  152,  153,  154,  155,  156,  157,  158,  159,  160,  161,  162
  163,  164,  165,  166,  167,  168,  169,  170,  171,  172,  173,  174,  175,  176,  177,  178
  179,  180,  181,  182,  183,  184,  185,  186,  187,  188,  189,  190,  191,  192,  193,  194
  195,  196,  197,  198,  199,  200,  201,  202,  203,  204,  205,  206,  207,  208,  209,  210
  211,  212,  213,  214,  215,  216,  217,  218,  219,  220,  221,  222,  223,  224,  225,  226
  227,  228,  229,  230,  231,  232,  233,  234,  235,  236,  237,  238,  239,  240,  241,  242
  243,  244,  245,  246,  247,  248,  249,  250,  251,  252,  253,  254,  255,  256,  257,  258
  259,  260,  261,  262,  263,  264,  265,  266,  267,  268,  269,  270,  271,  272,  273,  274
  275,  276,  277,  278,  279,  280,  281,  282,  283,  284,  285,  286,  287,  288,  289,  290
  291,  292,  293,  294,  295,  296,  297,  298,  299,  300,  301,  302,  303,  304,  305,  306
  307,  308,  309,  310,  311,  312,  313,  314,  315,  316,  317,  318,  319,  320,  321,  322
** ... 57 like lines cut
*Nset, nset=lower_left_right, instance=lower_plate-1
   3,   4,   7,   8,  12,  13,  16,  17,  21,  22,  43,  77, 115, 116, 150, 151
 152, 178, 179, 196, 217, 218
*Elset, elset=lower_left_right, instance=lower_plate-1
  33,  34,  67,  68,  73,  90, 107, 124, 141, 174, 191, 208, 219, 236, 253, 286
 303, 324, 341, 358
*Nset, nset=tie_lower_column, instance=column-1
  16,  17,  18,  19,  21,  24, 479, 480, 487, 576, 577, 578, 579, 580, 582
*Elset, elset=tie_lower_column, instance=column-1
 1061, 1062, 1063, 1064, 1071, 1072, 1251, 1252, 1253, 1254, 1255, 1256, 1259, 1260
*Nset, nset=tie_upper_column, instance=column-1
   3,   4,  14,  15,  22,  23,  26, 478, 481, 482, 483, 484, 485, 575, 581
*Elset, elset=tie_upper_column, instance=column-1
    1,    2, 1059, 1060, 1065, 1066, 1067, 1068, 1069, 1070, 1249, 1250, 1257, 1258
*Nset, nset=top_plate_left_right, instance=upper_plate-1
   3,   4,   7,   8,  12,  13,  16,  17,  21,  22,  43,  77, 115, 116, 150, 151
 152, 178, 179, 196, 217, 218
*Elset, elset=top_plate_left_right, instance=upper_plate-1
  33,  34,  67,  68,  73,  90, 107, 124, 141, 174, 191, 208, 219, 236, 253, 286
 303, 324, 341, 358
*Elset, elset=_lower_plate_SNEG, internal, instance=lower_plate-1, generate
   1,  380,    1
*Surface, type=ELEMENT, name=lower_plate
_lower_plate_SNEG, SNEG
*Elset, elset=_upper_plate_SNEG, internal, instance=upper_plate-1, generate
   1,  380,    1
*Surface, type=ELEMENT, name=upper_plate
_upper_plate_SNEG, SNEG
*Surface, type=NODE, name=MPC_upper_plate_CNS_, internal
MPC_upper_plate, 1.
*Surface, type=NODE, name=MPC_lower_plate_CNS_, internal
MPC_lower_plate, 1.
*Surface, type=NODE, name=tie_upper_column_CNS_, internal
tie_upper_column, 1.
*Surface, type=NODE, name=tie_lower_column_CNS_, internal
tie_lower_column, 1.
** Constraint: Constraint-1
*MPC
BEAM, MPC_upper_plate, discrete_point_loading_point-1.Set-1
** Constraint: Constraint-2
*MPC
BEAM, MPC_lower_plate, discrete_point_1-1.Set-1
** Constraint: Constraint-3
*Tie, name=Constraint-3, adjust=yes, position tolerance=5.
tie_upper_column_CNS_, upper_plate
** Constraint: Constraint-4
*Tie, name=Constraint-4, adjust=yes, position tolerance=5.
tie_lower_column_CNS_, lower_plate
*Spring, elset=Springs-spring

32700.
*Element, type=SpringA, elset=Springs-spring
1, discrete_point_loading_point-1.1, discrete_point_endspring-1.1
*End Assembly
*Amplitude, name=column-temperature, time=TOTAL TIME
             0.,             20.,              2.,             20.,             2.6,             58.,             3.2,            95.3
            3.8,           125.6,             4.4,           160.4,              5.,           190.7,             5.6,           225.5
            6.2,           255.8,             6.8,           290.6,             7.4,           318.5,              8.,           346.4
            8.6,            372.,             9.2,           397.6,             9.8,           416.2,            10.4,           441.8
*Amplitude, name=loading_curve, time=TOTAL TIME
             0.,              0.,              2.,              1.,            10.4,              1.
** 
** MATERIALS
** 
*Material, name=steel_linear
*Density
 7.85e-09,
*Elastic
200000., 0.3
*Material, name=steel_nonlinear
*Density
 7.85e-09,
*Elastic
200000.,  0.3,  20.
200000.,  0.3, 100.
180000.,  0.3, 200.
160000.,  0.3, 300.
140000.,  0.3, 400.
120000.,  0.3, 500.
 62000.,  0.3, 600.
 26000.,  0.3, 700.
 18000.,  0.3, 800.
 13500.,  0.3, 900.
  9000.,  0.3,1000.
  4500.,  0.3,1100.
     1.,  0.3,1200.
*Expansion
    1.2e-05,  20.
  1.248e-05, 100.
  1.288e-05, 200.
  1.328e-05, 300.
  1.368e-05, 400.
  1.408e-05, 500.
  1.448e-05, 600.
  1.488e-05, 700.
  1.508e-05, 750.
 1.4103e-05, 800.
 1.3095e-05, 860.
 1.3409e-05, 900.
 1.4082e-05,1000.
  1.463e-05,1100.
*Plastic
  304.8,         0.,        20.
  323.1, 0.00019707,        20.
  338.3,  0.0006361,        20.
   357.,   0.001561,        20.
  370.1,   0.002507,        20.
  380.7,   0.003465,        20.
  389.9,     0.0054,        20.
  396.7,   0.006375,        20.
  408.6,   0.007352,        20.
  413.4,   0.008333,        20.
  421.2,   0.010301,        20.
  429.2,   0.013269,        20.
  433.3,   0.016253,        20.
   434.,    0.01825,        20.
   492.,    0.14825,        20.
   492.,       0.45,        20.
  304.1,         0.,       100.
  323.1, 0.00019707,       100.
  338.3,  0.0006361,       100.
   357.,   0.001561,       100.
** ... 156 like lines cut
** 
** INTERACTION PROPERTIES
** 
*Surface Interaction, name=IntProp-1
1.,
*Surface Behavior, pressure-overclosure=HARD
** 
** BOUNDARY CONDITIONS
** 
** Name: column_lower Type: Displacement/Rotation
*Boundary
discrete_point_1-1.Set-1, 1, 1
discrete_point_1-1.Set-1, 2, 2
discrete_point_1-1.Set-1, 3, 3
discrete_point_1-1.Set-1, 5, 5
** Name: column_top Type: Displacement/Rotation
*Boundary
discrete_point_loading_point-1.Set-1, 1, 1
discrete_point_loading_point-1.Set-1, 3, 3
discrete_point_loading_point-1.Set-1, 5, 5
** Name: lower_plate_left_right Type: Displacement/Rotation
*Boundary
lower_left_right, 2, 2
lower_left_right, 3, 3
** 
** PREDEFINED FIELDS
** 
** Name: intial_temp   Type: Temperature
*Initial Conditions, type=TEMPERATURE
all_nodes, 20.
** ----------------------------------------------------------------
** 
** STEP: buckle
** 
*Step, name=buckle, nlgeom=NO, perturbation
*Buckle
3, , 6, 30
** 
** BOUNDARY CONDITIONS
** 
** Name: column_lower Type: Displacement/Rotation
*Boundary, op=NEW, load case=1
discrete_point_1-1.Set-1, 1, 1
discrete_point_1-1.Set-1, 2, 2
discrete_point_1-1.Set-1, 3, 3
discrete_point_1-1.Set-1, 5, 5
*Boundary, op=NEW, load case=2
discrete_point_1-1.Set-1, 1, 1
discrete_point_1-1.Set-1, 2, 2
discrete_point_1-1.Set-1, 3, 3
discrete_point_1-1.Set-1, 5, 5
** Name: column_top Type: Displacement/Rotation
*Boundary, op=NEW, load case=1
discrete_point_loading_point-1.Set-1, 1, 1
discrete_point_loading_point-1.Set-1, 3, 3
discrete_point_loading_point-1.Set-1, 5, 5
*Boundary, op=NEW, load case=2
discrete_point_loading_point-1.Set-1, 1, 1
discrete_point_loading_point-1.Set-1, 3, 3
discrete_point_loading_point-1.Set-1, 5, 5
** Name: lower_plate_left_right Type: Displacement/Rotation
*Boundary, op=NEW, load case=1
lower_left_right, 2, 2
lower_left_right, 3, 3
*Boundary, op=NEW, load case=2
lower_left_right, 2, 2
lower_left_right, 3, 3
** 
** LOADS
** 
** Name: Load-1   Type: Concentrated force
*Cload
discrete_point_loading_point-1.Set-1, 2, -1.
** 
** OUTPUT REQUESTS
** 
*Restart, write, frequency=0
** 
** FIELD OUTPUT: F-Output-1
** 
*Output, field, variable=PRESELECT
*NODE FIL
U,
*End Step
