** HAMK University of Applied Scince ===========================================
**                                 
**          Numerical analaysis techniques for structural fire safety design of steel structures
**          FE-SFS prject 
**          
**          HAMK TECH Research Unit	
**                            
**          Readable input files
**          
**==============================================================================
**===============================================================================
**          Case example:   Direct exposre of simple beam (case 1)    
**          Analyses types:  Thermal Analyses
**                  
**          
**==============================================================================
**===============================================================================
*Heading
** Job name: 2D_temp Model name: 2D_temp
** Generated by: Abaqus/CAE 2020
*Preprint, echo=NO, model=NO, history=NO, contact=NO
**
**** ----------------------------------------------------------------** ----------------------------------------------------------------** ----------------------------------------------------------------
** PARTS defination: This section is to create part and instances. Abaqus/CAE or other pre-processor like Hypermesh can be used to define parts
**
** Data lines to part defination using *PART keyword and name of the part.
** Data lines to define node number and node location (x-y-z co-ordinates)
*Part, name=Part-1
*Node
      1,         65.5,   8.08333302
      2,         65.5, -0.916666687
      3,         125., -0.916666687
      4,         125.,   8.08333302
      5,         59.5, -0.916666687
      6,         59.5,   8.08333302
      7,           0.,   8.08333302
      8,           0., -0.916666687
      9,         59.5,   240.083328
     10,         59.5,   249.083328
     11,           0.,   249.083328
     12,           0.,   240.083328
     13,         65.5,   249.083328
     14,         65.5,   240.083328
     15,         125.,   240.083328
     16,         125.,   249.083328
     17,         65.5,   5.08333349
     18,         65.5,   2.08333325
     19,   68.4749985, -0.916666687
     20,   71.4499969, -0.916666687
** ... 552 like lines cut
** ----------------------------------------------------------------** ----------------------------------------------------------------** ----------------------------------------------------------------
**Data lines to define element number and node number and element type. Beam element B31-a node node linear beam in space is define here.
**
*Element, type=DC2D4
 1,   1,  17, 339,  58
 2,  17,  18, 340, 339
 3,  18,   2,  19, 340
 4,  58, 339, 341,  57
 5, 339, 340, 342, 341
 6, 340,  19,  20, 342
 7,  57, 341, 343,  56
 8, 341, 342, 344, 343
 9, 342,  20,  21, 344
10,  56, 343, 345,  55
11, 343, 344, 346, 345
12, 344,  21,  22, 346
13,  55, 345, 347,  54
14, 345, 346, 348, 347
15, 346,  22,  23, 348
16,  54, 347, 349,  53
17, 347, 348, 350, 349
18, 348,  23,  24, 350
19,  53, 349, 351,  52
20, 349, 350, 352, 351
** ... 386 like lines cut
** ----------------------------------------------------------------** ----------------------------------------------------------------** ----------------------------------------------------------------
**Data line to define element node and elements sets
*Nset, nset=Set-4, generate
   1,  572,    1
*Elset, elset=Set-4, generate
   1,  406,    1
** Section: Section-beam
*Solid Section, elset=Set-4, material=S355_thermal
,
*End Part
** ----------------------------------------------------------------** ----------------------------------------------------------------** ----------------------------------------------------------------
**  
**
** ASSEMBLY
**
*Assembly, name=Assembly
**  
*Instance, name=Part-1-1, part=Part-1
          0.,     0.916667,           0.
*End Instance
**  
*Node
      1,         59.5,         125.,           0.
*Node
      2,        29.75,           9.,           0.
*Node
      3,        29.75,         241.,           0.
*Nset, nset=all_nodes, instance=Part-1-1, generate
   1,  572,    1
*Elset, elset=all_nodes, instance=Part-1-1, generate
   1,  406,    1
*Elset, elset=_exposed_S2, internal, instance=Part-1-1
   3,   6,   9,  12,  15,  18,  21,  24,  27,  30,  33,  36,  39,  42,  45,  48
  51,  54,  57,  60,  63,  66,  69,  72,  75,  78,  81,  84,  87,  90,  93,  96
  99, 102, 105, 108, 111, 114, 117, 120, 183, 186, 189, 192, 195, 198, 201, 204
 207, 210, 213, 216, 219, 222, 225, 228, 231, 234, 237, 240, 248, 250, 252, 254
 256, 258, 260, 262, 264, 266, 268, 270, 272, 274, 276, 278, 280, 282, 284, 286
 288, 290, 292, 294, 296, 298, 300, 302, 304, 306, 308, 310, 312, 314, 316, 318
 320, 322, 324, 326, 328, 330, 332, 334, 336, 338, 340, 342, 344, 346, 348, 350
 352, 354, 356, 358, 360, 362, 364, 366, 368, 370, 372, 374, 376, 378, 380, 382
 384, 386, 388, 390, 392, 394, 396, 398, 400
*Elset, elset=_exposed_S3, internal, instance=Part-1-1
  58,  59,  60, 118, 119, 120, 178, 179, 180, 238, 239, 240, 405, 406
*Elset, elset=_exposed_S4, internal, instance=Part-1-1
   1,   4,   7,  10,  13,  16,  19,  22,  25,  28,  31,  34,  37,  40,  43,  46
  49,  52,  55,  58,  61,  64,  67,  70,  73,  76,  79,  82,  85,  88,  91,  94
  97, 100, 103, 106, 109, 112, 115, 118, 121, 124, 127, 130, 133, 136, 139, 142
 145, 148, 151, 154, 157, 160, 163, 166, 169, 172, 175, 178, 247, 249, 251, 253
 255, 257, 259, 261, 263, 265, 267, 269, 271, 273, 275, 277, 279, 281, 283, 285
 287, 289, 291, 293, 295, 297, 299, 301, 303, 305, 307, 309, 311, 313, 315, 317
 319, 321, 323, 325, 327, 329, 331, 333, 335, 337, 339, 341, 343, 345, 347, 349
 351, 353, 355, 357, 359, 361, 363, 365, 367, 369, 371, 373, 375, 377, 379, 381
 383, 385, 387, 389, 391, 393, 395, 397, 399
*Surface, type=ELEMENT, name=exposed
_exposed_S2, S2
_exposed_S3, S3
_exposed_S4, S4
*Elset, elset=_unexposed_S2, internal, instance=Part-1-1, generate
 123,  180,    3
*Elset, elset=_unexposed_S4, internal, instance=Part-1-1, generate
 181,  238,    3
*Elset, elset=_unexposed_S1, internal, instance=Part-1-1
 241, 242
*Surface, type=ELEMENT, name=unexposed
_unexposed_S2, S2
_unexposed_S4, S4
_unexposed_S1, S1
*End Assembly
** ----------------------------------------------------------------** ----------------------------------------------------------------** ----------------------------------------------------------------
** Data line to defined time-temperature curve from fire response model
** Data line to define the time-temperature curve
**
*Amplitude, name=Cong_fire, time=TOTAL TIME
             0.,             20.,             24.,            200.,             75.,           335.3,            150.,            400.
           270.,            450.,            600.,            500.,            960.,            550.,           1200.,            550.
          1320.,            550.,           1380.,            600.,           1800.,           635.3,           2400.,            700.
          3000.,           741.2,           3450.,           764.7
*Amplitude, name=ISO_fire, time=TOTAL TIME
             0.,             20.,             30.,           261.1,             60.,           349.2,             90.,           404.3
           120.,           444.5,            150.,           476.2,            180.,           502.3,            210.,           524.5
           240.,           543.9,            270.,            561.,            300.,           576.4,            360.,           603.1
           420.,           625.8,            480.,           645.5,            540.,           662.8,            600.,           678.4
           720.,           705.4,            840.,           728.3,            960.,           748.2,           1080.,           765.7
          1200.,           781.4,           1500.,           814.6,           1800.,           841.8,           2400.,           884.7
          3000.,           918.1,           3600.,           945.3
** 
** ----------------------------------------------------------------** ----------------------------------------------------------------** ----------------------------------------------------------------
**** MATERIALS :Materials properties definition. The name of material is defined using name=xx
** data line to define temperature-dependent conductivity
** data line to define thermal density
** data line to define temperature-dependent specific heat
**
** ----------------------------------------------------------------**
*Material, name=S355_thermal
**
** data line to define temperature-dependent conductivity
*Conductivity
54000.,  20.
50670., 100.
47340., 200.
44010., 300.
40680., 400.
37350., 500.
34020., 600.
30690., 700.
27360., 800.
27360.,1000.
** ----------------------------------------------------------------**
**data line to define thermal density
*Density
 7.85e-06,
** ----------------------------------------------------------------**
**data line to define specific heat
*Specific Heat
  4.25e+08,  20.
 4.876e+08, 100.
 5.298e+08, 200.
 5.647e+08, 300.
 6.059e+08, 400.
 6.665e+08, 500.
 7.599e+08, 600.
 1.008e+09, 700.
     5e+09, 735.
 8.033e+08, 800.
 6.504e+08, 900.
   6.5e+08,1000.
** 
** ----------------------------------------------------------------** ----------------------------------------------------------------** ----------------------------------------------------------------
**
** PHYSICAL CONSTANTS :Defining physical constants
** The most essential phsyical constant like absolute zero and the Stafan Boltzmann constant are defined here.
** 
*Physical Constants, absolute zero=-273.16, stefan boltzmann=5.67e-08
** 
** ----------------------------------------------------------------** ----------------------------------------------------------------** ----------------------------------------------------------------
**
**
** PREDEFINED FIELDS : Defining prediefine field like initial temperature. Abaqus assume zero temperature at nodes if predefined temperature is not defined.
** 
** Name: Predefined Field-1   Type: Temperature
*Initial Conditions, type=TEMPERATURE
all_nodes, 20.
** ----------------------------------------------------------------** ----------------------------------------------------------------** ----------------------------------------------------------------
**  COMMENTS ABOUT THE KEYWROD
** Defining nonlinear transient thermal analysis step
** HEAT TRANSFER, END=PERIOD, DELTMX=VALUE.
** Data line to define simulation time and incrementation definition
** Defining convection and radiation interactions
** *SFILM, AMPLITUDE=name_of_fire_curve_amplitude
** Data line to define convection surface and film coefficient
** *SRADIATE, AMPLITUDE= name_of_fire_curve_amplitude
** Data line to define radiation surface and emissivity
** Defining output requests
** *OUTPUT, FIELD
** *NODE OUTPUT
** NT,
** data line to define nodal temperature output
** Other output variables request here
** ----------------------------------------------------------------*
** STEP: fire
** 
*Step, name=fire, nlgeom=NO, inc=1000
*Heat Transfer, end=PERIOD, deltmx=10.
1., 3600., 0.036, 5., 
** 
** ----------------------------------------------------------------** ----------------------------------------------------------------** ----------------------------------------------------------------
** INTERACTIONS: To defined convection and radation boundary condition for surface exposed to fire or surface not exposed to fire.
** 
** Interaction: convection_exposed
*Sfilm, amplitude=Cong_fire
exposed, F, 1., 25.
** Interaction: convection_unexposed
*Sfilm
unexposed, F, 20., 9.
** Interaction: radaition
*Sradiate, amplitude=Cong_fire
exposed, R, 1., 0.7
** 
** ----------------------------------------------------------------** ----------------------------------------------------------------** ----------------------------------------------------------------
** OUTPUT REQUESTS
** 
*Restart, write, frequency=0
** 
** FIELD OUTPUT: F-Output-1
** 
*Output, field
*Node Output
NT, 
*Element Output, directions=YES
HFL, TEMP
*Output, history, frequency=0
*End Step
