** HAMK University of Applied Scince ===========================================
**                                 
**          Numerical analaysis techniques for structural fire safety design of steel structures
**          FE-SFS prject 
**          
**          HAMK TECH Research Unit	
**                            
**          Readable input files
**          
**==============================================================================
**===============================================================================
**          Case example:   Direct exposre of simple beam (case 1)    
**          Analyses types:  Structural Analyses 
**                  
**          Element types: Beam element
**==============================================================================
**===============================================================================
*Heading
** Job name: structural_beam_explicit_90mm Model name: structural_beam-explicit-course
** Generated by: Abaqus/CAE 2020
*Preprint, echo=NO, model=NO, history=NO, contact=NO
**** ----------------------------------------------------------------** ----------------------------------------------------------------** ----------------------------------------------------------------
** PARTS defination: This section is to create part and instances. Abaqus/CAE or other pre-processor like Hypermesh can be used to define parts
**
*Part, name=Part-1
*Node
      1,        -475.,           0.
      2,          50.,           0.
      3,        1100.,           0.
      4,        2150.,           0.
      5,        3200.,           0.
      6,        3725.,           0.
      7,       -387.5,           0.
      8,        -300.,           0.
      9,       -212.5,           0.
     10,        -125.,           0.
     11,        -37.5,           0.
     12,        137.5,           0.
     13,         225.,           0.
     14,        312.5,           0.
     15,         400.,           0.
     16,        487.5,           0.
     17,         575.,           0.
     18,        662.5,           0.
     19,         750.,           0.
     20,        837.5,           0.
** ... 29 like lines cut
** ----------------------------------------------------------------** ----------------------------------------------------------------** ----------------------------------------------------------------
**Data lines to define element number and node number and element type. Beam element B31-a node node linear beam in space is define here.
*Element, type=B21
1,  1,  7
2,  7,  8
3,  8,  9
4,  9, 10
5, 10, 11
6, 11,  2
 7,  2, 12
 8, 12, 13
 9, 13, 14
10, 14, 15
11, 15, 16
12, 16, 17
13, 17, 18
14, 18, 19
15, 19, 20
16, 20, 21
17, 21, 22
18, 22,  3
19,  3, 23
20, 23, 24
** ... 28 like lines cut
** ----------------------------------------------------------------** ----------------------------------------------------------------** ----------------------------------------------------------------
**Data line to define element node and elements sets
*Nset, nset=Set-2, generate
  1,  49,   1
*Elset, elset=Set-2, generate
  1,  48,   1
** Section: Section-1  Profile: Profile-1
*Beam Section, elset=Set-2, material=S355_structural_approx, temperature=VALUES, section=I
0., 250., 125., 125., 9., 9., 6.
0.,0.,-1.
*End Part
**  
**
** ----------------------------------------------------------------** ----------------------------------------------------------------** ----------------------------------------------------------------
**Data line to define assembly
** ASSEMBLY
**
*Assembly, name=Assembly
**  
*Instance, name=Part-1-1, part=Part-1
        475.,           0.,           0.
*End Instance
**  
*Nset, nset=Set-2, instance=Part-1-1
 1,
*Nset, nset=Set-3, instance=Part-1-1
 6,
*Nset, nset=Set-4, instance=Part-1-1, generate
  1,  49,   1
*Elset, elset=Set-4, instance=Part-1-1, generate
  1,  48,   1
*Nset, nset=load_nodes, instance=Part-1-1, generate
 2,  5,  1
*End Assembly
**
** ----------------------------------------------------------------** ----------------------------------------------------------------** ----------------------------------------------------------------
**
**
** ----------------------------------------------------------------*
**Data line to defined temperature histories from thermal response model.
**Data line to define the time-temperature curve for beam sections temperature points
**(similar definition approaches for defining multiple amplitude curve)
** Data line to define mechanical loading curve for mechanical loading steep and temperature loading step.
**
*Amplitude, name=mech_loading, time=TOTAL TIME
             0.,              0.,              2.,              1.,             20.,              1.
*Amplitude, name=temperature, time=TOTAL TIME
             0.,              0.,              2.,              0.,           2.005,      0.02723374,            2.01,     0.027268062
          2.015,     0.027322271,           2.025,     0.027514209,           2.045,     0.028250413,            2.07,     0.029757454
          2.095,     0.031894601,            2.12,     0.034711128,           2.145,     0.037804479,            2.17,     0.041147485
          2.195,     0.044737365,            2.22,     0.048575046,           2.245,     0.052662614,            2.27,      0.05700272
          2.295,     0.061598387,            2.32,     0.066452947,           2.345,     0.071569985,            2.37,     0.076953315
          2.395,     0.082430346,            2.42,     0.087944201,           2.445,     0.093487862,            2.47,     0.099058505
          2.495,      0.10465447,            2.52,     0.110275774,           2.545,     0.115929223,            2.57,     0.121613963
          2.595,     0.127329738,            2.62,     0.133076921,           2.645,      0.13885986,            2.67,     0.144679402
          2.695,     0.150535467,            2.72,     0.156428081,           2.745,     0.162357318,            2.77,     0.168275632
          2.795,     0.174167359,            2.82,     0.180030838,           2.845,     0.185866318,            2.87,     0.191674341
          2.895,     0.197454854,            2.92,     0.203208007,           2.945,     0.208933975,            2.97,     0.214632957
          2.995,     0.220305152,            3.02,     0.225951922,           3.045,     0.231573663,            3.07,     0.237170567
          3.095,     0.242742823,            3.12,     0.248290665,           3.145,     0.253814349,            3.17,     0.259314174
          3.195,     0.264790533,            3.22,     0.270244444,           3.245,     0.275676108,            3.27,     0.281085726
          3.295,     0.286473478,            3.32,     0.291839584,           3.345,     0.297184226,            3.37,     0.302477929
          3.395,     0.307711065,            3.42,     0.312882907,           3.445,     0.317993608,            3.47,     0.323043576
          3.495,     0.328033309,            3.52,     0.332963355,           3.545,       0.3378343,            3.57,     0.342646673
          3.595,     0.347400596,            3.62,     0.352096749,           3.645,     0.356736039,            3.67,     0.361319143
          3.695,     0.365846781,            3.72,     0.370319695,           3.745,     0.374738528,            3.77,     0.379104027
          3.795,     0.383416871,            3.82,     0.387677724,           3.845,     0.391887258,            3.87,      0.39604577
** ... 162 like lines cut
** 
** ----------------------------------------------------------------** ----------------------------------------------------------------** ----------------------------------------------------------------
** MATERIALS: Materials properties definition
***MATERIAL, NAME=NAME_OF_MATERIAL
**DENSITY
**data line to define density of the material
**EXPANSION
**data line to define temperature-dependent expansion
**ELASTIC
**data line to define temperature-dependent elasticity
**PLASTIC
**data line to define temperature-dependent plasticity
**..
**similar definition approaches for defining multiple material properties) 
** ----------------------------------------------------------------*
** 
*Material, name=S355_structural_approx
*Density
 7.85e-09,
*Elastic
200000.,  0.3,  20.
200000.,  0.3, 100.
180000.,  0.3, 200.
160000.,  0.3, 300.
140000.,  0.3, 400.
120000.,  0.3, 500.
 62000.,  0.3, 600.
 26000.,  0.3, 700.
 18000.,  0.3, 800.
 13500.,  0.3, 900.
  9000.,  0.3,1000.
  4500.,  0.3,1100.
     1.,  0.3,1200.
*Expansion
    1.2e-05,  20.
  1.248e-05, 100.
  1.288e-05, 200.
  1.328e-05, 300.
  1.368e-05, 400.
  1.408e-05, 500.
  1.448e-05, 600.
  1.488e-05, 700.
  1.508e-05, 750.
 1.4103e-05, 800.
 1.3095e-05, 860.
 1.3409e-05, 900.
 1.4082e-05,1000.
  1.463e-05,1100.
*Plastic
  304.8,         0.,        20.
  323.1, 0.00019707,        20.
  338.3,  0.0006361,        20.
   357.,   0.001561,        20.
  370.1,   0.002507,        20.
  380.7,   0.003465,        20.
  389.9,     0.0054,        20.
  396.7,   0.006375,        20.
  408.6,   0.007352,        20.
  413.4,   0.008333,        20.
  421.2,   0.010301,        20.
  429.2,   0.013269,        20.
  433.3,   0.016253,        20.
   434.,    0.01825,        20.
   492.,    0.14825,        20.
   492.,       0.45,        20.
  304.1,         0.,       100.
  323.1, 0.00019707,       100.
  338.3,  0.0006361,       100.
   357.,   0.001561,       100.
** ... 156 like lines cut
** 
** PHYSICAL CONSTANTS
** 
*Physical Constants, absolute zero=-273.16, stefan boltzmann=5.67e-08
** 
** ----------------------------------------------------------------** ----------------------------------------------------------------** ----------------------------------------------------------------
** BOUNDARY CONDITIONS: Defining boundary conditions (BCs)
**
**Data line to define displacement, rotation, and symmetry boundary conditions.
** 
** Name: left_pin Type: Displacement/Rotation
*Boundary
Set-2, 1, 1
Set-2, 2, 2
** Name: roller Type: Displacement/Rotation
*Boundary
Set-3, 2, 2
** 
** ----------------------------------------------------------------** ----------------------------------------------------------------** ----------------------------------------------------------------
** PREDEFINED FIELDS: Defining predefined fields
**Data line to define initial temperature, the inital temperature is defined in beam temperature points.
**20 deg celsius in defined in five temperature point of I-beam section. For more detial refers to page 18, 17 of FE-SFS Annual report 2020.
** 
** Name: Predefined Field-1   Type: Temperature
*Initial Conditions, type=TEMPERATURE
Part-1-1.Set-2, 20., 20., 20., 20., 20.
** ----------------------------------------------------------------
** STEP: mech-loading: Defining mechanical loading step 1
** *DYNAMIC, EXPLICIT
** Data lines to define explicit dynamics parameters and termination time
** *BULK VISCOSITY
** Data lines to define bulk viscosity parameters
** Defining loading
** *CLOAD, AMPLITUDE=NAME_OF_LOAD_CURVE
** Data line to define load amplitude and location (node or element surface)
** Data lines for output request
** *OUTPUT, FIELD, TIME INTERVAL=0.1, TIME MARKS=YES
** *NODE OUTPUT
** Data line to define quantities for nodal output request
** *ELEMENT OUTPUT
** Data line to define quantities for element output request
** Data line for history output:
** *OUTPUT, HISTORY, VARIABLE=NAME_OF_VARIABLES, TIME INTERVAL=0.1
**** ----------------------------------------------------------------*
** 
*Step, name=mechanical_loading, nlgeom=YES
*Dynamic, Explicit
, 2.
*Bulk Viscosity
0.06, 1.2
** 
** LOADS
** 
** Name: Load-1   Type: Concentrated force
*Cload, amplitude=mech_loading
load_nodes, 2, -10500.
** 
** OUTPUT REQUESTS
** 
*Restart, write, number interval=1, time marks=NO
** 
** FIELD OUTPUT: F-Output-1
** 
*Output, field, number interval=40
*Node Output
U, 
*Element Output, directions=YES
S, TEMP
** 
** HISTORY OUTPUT: H-Output-1
** 
*Output, history, time interval=0.1
*Energy Output
ALLAE, ALLCD, ALLCW, ALLDC, ALLDMD, ALLFD, ALLIE, ALLKE, ALLMW, ALLPD, ALLPW, ALLSE, ALLVD, ALLWK, ETOTAL
*End Step
** ----------------------------------------------------------------
** 
** STEP: fire_heating
** 
*Step, name=fire_heating, nlgeom=YES
*Dynamic, Explicit
, 18.
*Bulk Viscosity
0.06, 1.2
** 
** PREDEFINED FIELDS
** 
** Name: Predefined Field-2   Type: Temperature
*Temperature, amplitude=temperature
Part-1-1.Set-2, 745.723, 739.47, 719., 719., 719.
** 
** OUTPUT REQUESTS
** 
*Restart, write, number interval=1, time marks=NO
** 
** FIELD OUTPUT: F-Output-1
** 
*Output, field, number interval=40
*Node Output
U, 
*Element Output, directions=YES
S, TEMP
** 
** HISTORY OUTPUT: H-Output-1
** 
*Output, history, time interval=0.9
*Energy Output
ALLAE, ALLCD, ALLCW, ALLDC, ALLDMD, ALLFD, ALLIE, ALLKE, ALLMW, ALLPD, ALLPW, ALLSE, ALLVD, ALLWK, ETOTAL
*End Step
