*Heading
** Job name: structural_shell Model name: structural_shell
** Generated by: Abaqus/CAE 2020
*Preprint, echo=NO, model=NO, history=NO, contact=NO
**
**==============================================================================
**          HAMK University of Applied Scince 
**                                 
**          Numerical analaysis techniques for structural fire safety design of steel structures
**          FE-SFS prject 
**          
**          HAMK TECH Research Unit	
**                            
**          Readable input files
**          
**==============================================================================
**
**          Case example:   simple beam (case 1)    
**          Analyses types:  Structural Analyses               
**          Element types: shell element
**==============================================================================
** PARTS
**
** PARTS defination: This section is to create part and instances. Abaqus/CAE or other pre-processor like Hypermesh can be used to define parts
**This lines define part name. element types for the parts. elements sets and nodes sets in side every parts and section defination for beam or shell elements
** Each Part will begin with *Part keyword and end to *End Part keyword
** PARTS
**===============================================================================
**
*Part, name=beam
*End Part
**  
**
**===============================================================================
** Data line to define assembly of the parts and other elements like spring and MASS elemets
** Create Assembly from the list of parts that are used in the model
**  It consists of name of instance used in the model, node and elements sets, surface sets, interractions , springs etc
** Each Assembly instance will begin with *Instance  keyword and end to *End Instance keyword
**===============================================================================
** ASSEMBLY
**
*Assembly, name=Assembly
**  
*Instance, name=beam-1, part=beam
       -62.5,        -125.,       -4200.
**===============================================================================
** Data lines to define node number and node location (x-y-z co-ordinates)
**===============================================================================
*Node
      1,         125.,           0.,         525.
      2,         62.5,           0.,         525.
      3,         62.5,           0.,           0.
      4,         125.,           0.,           0.
      5,           0.,           0.,         525.
      6,         62.5,           0.,        1575.
      7,           0.,           0.,        1575.
      8,           0.,         250.,         525.
      9,         62.5,         250.,         525.
     10,         62.5,         250.,        1575.
     11,           0.,         250.,        1575.
     12,         125.,         250.,         525.
     13,         62.5,         250.,           0.
     14,         125.,         250.,           0.
     15,         125.,           0.,        1575.
     16,         62.5,           0.,        2625.
     17,           0.,           0.,        2625.
     18,         62.5,         250.,        2625.
     19,           0.,         250.,        2625.
     20,         125.,         250.,        1575.
** ... 1555 like lines cut
** ----------------------------------------------------------------
**Data lines to define element number and node number and element type.
** ----------------------------------------------------------------
*Element, type=S4R
 1,   1,  37, 685,  62
 2,  37,   2,  38, 685
 3,  62, 685, 686,  61
 4, 685,  38,  39, 686
 5,  61, 686, 687,  60
 6, 686,  39,  40, 687
 7,  60, 687, 688,  59
 8, 687,  40,  41, 688
 9,  59, 688, 689,  58
10, 688,  41,  42, 689
11,  58, 689, 690,  57
12, 689,  42,  43, 690
13,  57, 690, 691,  56
14, 690,  43,  44, 691
15,  56, 691, 692,  55
16, 691,  44,  45, 692
17,  55, 692, 693,  54
18, 692,  45,  46, 693
19,  54, 693, 694,  53
20, 693,  46,  47, 694
** ... 1436 like lines cut
*Nset, nset=web
    2,    3,    6,    9,   10,   13,   16,   18,   21,   24,   27,   30,   38,   39,   40,   41
   42,   43,   44,   45,   46,   47,   48,   49,   64,   65,   66,   67,   68,   69,   70,   71
   72,   73,   74,   75,   76,   77,   78,   79,   80,   81,   82,   83,   84,   85,   86,   87
   88,  116,  117,  118,  119,  120,  121,  122,  123,  124,  125,  126,  127,  128,  129,  130
  131,  132,  133,  134,  135,  136,  137,  138,  139,  140,  167,  168,  169,  170,  171,  172
  173,  174,  175,  176,  178,  179,  180,  181,  182,  183,  184,  185,  186,  187,  188,  189
  229,  230,  231,  232,  233,  234,  235,  236,  237,  238,  239,  240,  241,  242,  243,  244
  245,  246,  247,  248,  249,  250,  251,  252,  253,  280,  281,  282,  283,  284,  285,  286
  287,  288,  289,  290,  291,  292,  293,  294,  295,  296,  297,  298,  299,  300,  301,  302
  303,  304,  331,  332,  333,  334,  335,  362,  363,  364,  365,  366,  367,  368,  369,  370
  371,  372,  373,  374,  375,  376,  377,  378,  379,  380,  381,  382,  383,  384,  385,  386
  439,  440,  441,  442,  443,  444,  445,  446,  447,  448,  449,  450,  451,  452,  453,  454
  455,  456,  457,  458,  459,  460,  461,  462,  463,  490,  491,  492,  493,  494,  521,  522
  523,  524,  525,  526,  527,  528,  529,  530,  531,  532,  572,  573,  574,  575,  576,  577
  578,  579,  580,  581,  582,  583,  584,  585,  586,  587,  588,  654,  655,  656,  657,  658
  747,  748,  749,  750,  751,  752,  753,  754,  755,  756,  757,  758,  759,  760,  761,  762
  763,  764,  765,  766,  767,  768,  769,  770,  771,  772,  773,  774,  775,  776,  777,  778
  779,  780,  781,  782,  783,  784,  785,  786,  787,  788,  789,  790,  791,  792,  793,  794
  795,  796,  797,  798,  799,  800,  801,  802,  803,  804,  805,  806,  807,  808,  809,  810
  811,  812,  813,  814,  815,  816,  817,  818,  819,  820,  821,  822,  823,  824,  825,  826
** ... 26 like lines cut
*Elset, elset=web
  131,  132,  133,  134,  135,  136,  137,  138,  139,  140,  141,  142,  143,  144,  145,  146
  147,  148,  149,  150,  151,  152,  153,  154,  155,  156,  157,  158,  159,  160,  161,  162
  163,  164,  165,  166,  167,  168,  169,  170,  171,  172,  173,  174,  175,  176,  177,  178
  179,  180,  181,  182,  183,  184,  185,  186,  187,  188,  189,  190,  191,  192,  193,  194
  195,  196,  197,  198,  199,  200,  201,  202,  203,  204,  205,  206,  207,  208,  209,  210
  211,  212,  213,  214,  215,  216,  217,  218,  219,  220,  221,  222,  223,  224,  225,  226
  227,  228,  229,  230,  231,  232,  233,  234,  235,  236,  237,  238,  239,  240,  241,  242
  243,  244,  245,  246,  247,  248,  249,  250,  251,  252,  253,  254,  255,  256,  257,  258
  259,  260,  261,  262,  263,  264,  265,  266,  267,  268,  269,  270,  271,  272,  273,  274
  275,  276,  277,  278,  279,  280,  281,  282,  283,  284,  285,  286,  469,  470,  471,  472
  473,  474,  475,  476,  477,  478,  479,  480,  481,  482,  483,  484,  485,  486,  487,  488
  489,  490,  491,  492,  493,  494,  495,  496,  497,  498,  499,  500,  501,  502,  503,  504
  505,  506,  507,  508,  509,  510,  511,  512,  513,  514,  515,  516,  517,  518,  519,  520
  521,  522,  523,  524,  525,  526,  527,  528,  529,  530,  531,  532,  533,  534,  535,  536
  537,  538,  539,  540,  541,  542,  543,  544,  545,  546,  547,  548,  549,  550,  551,  552
  553,  554,  555,  556,  557,  558,  559,  560,  561,  562,  563,  564,  565,  566,  567,  568
  569,  570,  571,  572,  573,  574,  575,  576,  577,  578,  579,  580,  581,  582,  583,  584
  585,  586,  587,  588,  589,  590,  591,  592,  593,  594,  595,  596,  597,  598,  599,  600
  601,  602,  603,  604,  605,  606,  607,  608,  609,  610,  611,  612,  613,  614,  615,  616
  617,  618,  619,  620,  621,  622,  623,  624,  833,  834,  835,  836,  837,  838,  839,  840
** ... 19 like lines cut
*Nset, nset=upper_flange
    8,    9,   10,   11,   12,   13,   14,   18,   19,   20,   24,   25,   26,   27,   28,   29
   35,   36,  115,  116,  117,  118,  119,  120,  121,  122,  123,  124,  125,  126,  127,  128
  129,  130,  131,  132,  133,  134,  135,  136,  137,  138,  139,  140,  141,  142,  143,  144
  145,  146,  147,  148,  149,  150,  151,  152,  153,  154,  155,  156,  157,  158,  159,  160
  161,  162,  163,  164,  165,  166,  177,  178,  179,  180,  181,  182,  183,  184,  185,  186
  187,  188,  189,  190,  191,  192,  193,  194,  195,  196,  197,  198,  199,  200,  201,  202
  280,  281,  282,  283,  284,  285,  286,  287,  288,  289,  290,  291,  292,  293,  294,  295
  296,  297,  298,  299,  300,  301,  302,  303,  304,  305,  306,  307,  308,  309,  310,  311
  312,  313,  314,  315,  316,  317,  318,  319,  320,  321,  322,  323,  324,  325,  326,  327
  328,  329,  330,  336,  337,  338,  339,  340,  341,  342,  343,  344,  345,  346,  347,  348
  349,  350,  351,  352,  353,  354,  355,  356,  357,  358,  359,  360,  361,  439,  440,  441
  442,  443,  444,  445,  446,  447,  448,  449,  450,  451,  452,  453,  454,  455,  456,  457
  458,  459,  460,  461,  462,  463,  464,  465,  466,  467,  468,  469,  470,  471,  472,  473
  474,  475,  476,  477,  478,  479,  480,  481,  482,  483,  484,  485,  486,  487,  488,  489
  495,  496,  497,  498,  499,  500,  501,  502,  503,  504,  505,  506,  507,  508,  509,  510
  511,  512,  513,  514,  515,  516,  517,  518,  519,  520,  521,  522,  523,  524,  525,  526
  527,  528,  529,  530,  531,  532,  533,  534,  535,  536,  537,  538,  539,  540,  541,  542
  543,  544,  545,  546,  547,  548,  549,  550,  551,  552,  553,  554,  555,  556,  557,  558
  559,  560,  561,  562,  563,  564,  565,  566,  567,  568,  569,  570,  571,  659,  660,  661
  662,  663,  664,  665,  666,  667,  668,  669,  670,  671,  672,  673,  674,  675,  676,  677
** ... 13 like lines cut
*Elset, elset=upper_flange
   79,   80,   81,   82,   83,   84,   85,   86,   87,   88,   89,   90,   91,   92,   93,   94
   95,   96,   97,   98,   99,  100,  101,  102,  103,  104,  105,  106,  107,  108,  109,  110
  111,  112,  113,  114,  115,  116,  117,  118,  119,  120,  121,  122,  123,  124,  125,  126
  127,  128,  129,  130,  287,  288,  289,  290,  291,  292,  293,  294,  295,  296,  297,  298
  299,  300,  301,  302,  303,  304,  305,  306,  307,  308,  309,  310,  311,  312,  417,  418
  419,  420,  421,  422,  423,  424,  425,  426,  427,  428,  429,  430,  431,  432,  433,  434
  435,  436,  437,  438,  439,  440,  441,  442,  443,  444,  445,  446,  447,  448,  449,  450
  451,  452,  453,  454,  455,  456,  457,  458,  459,  460,  461,  462,  463,  464,  465,  466
  467,  468,  625,  626,  627,  628,  629,  630,  631,  632,  633,  634,  635,  636,  637,  638
  639,  640,  641,  642,  643,  644,  645,  646,  647,  648,  649,  650,  651,  652,  653,  654
  655,  656,  657,  658,  659,  660,  661,  662,  663,  664,  665,  666,  667,  668,  669,  670
  671,  672,  673,  674,  675,  676,  781,  782,  783,  784,  785,  786,  787,  788,  789,  790
  791,  792,  793,  794,  795,  796,  797,  798,  799,  800,  801,  802,  803,  804,  805,  806
  807,  808,  809,  810,  811,  812,  813,  814,  815,  816,  817,  818,  819,  820,  821,  822
  823,  824,  825,  826,  827,  828,  829,  830,  831,  832,  989,  990,  991,  992,  993,  994
  995,  996,  997,  998,  999, 1000, 1001, 1002, 1003, 1004, 1005, 1006, 1007, 1008, 1009, 1010
 1011, 1012, 1013, 1014, 1015, 1016, 1017, 1018, 1019, 1020, 1021, 1022, 1023, 1024, 1025, 1026
 1027, 1028, 1029, 1030, 1031, 1032, 1033, 1034, 1035, 1036, 1037, 1038, 1039, 1040, 1041, 1042
 1043, 1044, 1045, 1046, 1047, 1048, 1049, 1050, 1051, 1052, 1053, 1054, 1055, 1056, 1057, 1058
 1059, 1060, 1061, 1062, 1063, 1064, 1065, 1066, 1067, 1068, 1069, 1070, 1071, 1072, 1073, 1074
** ... 6 like lines cut
*Nset, nset=lower_flange
    1,    2,    3,    4,    5,    6,    7,   15,   16,   17,   21,   22,   23,   30,   31,   32
   33,   34,   37,   38,   39,   40,   41,   42,   43,   44,   45,   46,   47,   48,   49,   50
   51,   52,   53,   54,   55,   56,   57,   58,   59,   60,   61,   62,   63,   64,   65,   66
   67,   68,   69,   70,   71,   72,   73,   74,   75,   76,   77,   78,   79,   80,   81,   82
   83,   84,   85,   86,   87,   88,   89,   90,   91,   92,   93,   94,   95,   96,   97,   98
   99,  100,  101,  102,  103,  104,  105,  106,  107,  108,  109,  110,  111,  112,  113,  114
  203,  204,  205,  206,  207,  208,  209,  210,  211,  212,  213,  214,  215,  216,  217,  218
  219,  220,  221,  222,  223,  224,  225,  226,  227,  228,  229,  230,  231,  232,  233,  234
  235,  236,  237,  238,  239,  240,  241,  242,  243,  244,  245,  246,  247,  248,  249,  250
  251,  252,  253,  254,  255,  256,  257,  258,  259,  260,  261,  262,  263,  264,  265,  266
  267,  268,  269,  270,  271,  272,  273,  274,  275,  276,  277,  278,  279,  362,  363,  364
  365,  366,  367,  368,  369,  370,  371,  372,  373,  374,  375,  376,  377,  378,  379,  380
  381,  382,  383,  384,  385,  386,  387,  388,  389,  390,  391,  392,  393,  394,  395,  396
  397,  398,  399,  400,  401,  402,  403,  404,  405,  406,  407,  408,  409,  410,  411,  412
  413,  414,  415,  416,  417,  418,  419,  420,  421,  422,  423,  424,  425,  426,  427,  428
  429,  430,  431,  432,  433,  434,  435,  436,  437,  438,  577,  578,  579,  580,  581,  582
  583,  584,  585,  586,  587,  588,  589,  590,  591,  592,  593,  594,  595,  596,  597,  598
  599,  600,  601,  602,  603,  604,  605,  606,  607,  608,  609,  610,  611,  612,  613,  614
  615,  616,  617,  618,  619,  620,  621,  622,  623,  624,  625,  626,  627,  628,  629,  630
  631,  632,  633,  634,  635,  636,  637,  638,  639,  640,  641,  642,  643,  644,  645,  646
** ... 13 like lines cut
*Elset, elset=lower_flange
    1,    2,    3,    4,    5,    6,    7,    8,    9,   10,   11,   12,   13,   14,   15,   16
   17,   18,   19,   20,   21,   22,   23,   24,   25,   26,   27,   28,   29,   30,   31,   32
   33,   34,   35,   36,   37,   38,   39,   40,   41,   42,   43,   44,   45,   46,   47,   48
   49,   50,   51,   52,   53,   54,   55,   56,   57,   58,   59,   60,   61,   62,   63,   64
   65,   66,   67,   68,   69,   70,   71,   72,   73,   74,   75,   76,   77,   78,  313,  314
  315,  316,  317,  318,  319,  320,  321,  322,  323,  324,  325,  326,  327,  328,  329,  330
  331,  332,  333,  334,  335,  336,  337,  338,  339,  340,  341,  342,  343,  344,  345,  346
  347,  348,  349,  350,  351,  352,  353,  354,  355,  356,  357,  358,  359,  360,  361,  362
  363,  364,  365,  366,  367,  368,  369,  370,  371,  372,  373,  374,  375,  376,  377,  378
  379,  380,  381,  382,  383,  384,  385,  386,  387,  388,  389,  390,  391,  392,  393,  394
  395,  396,  397,  398,  399,  400,  401,  402,  403,  404,  405,  406,  407,  408,  409,  410
  411,  412,  413,  414,  415,  416,  677,  678,  679,  680,  681,  682,  683,  684,  685,  686
  687,  688,  689,  690,  691,  692,  693,  694,  695,  696,  697,  698,  699,  700,  701,  702
  703,  704,  705,  706,  707,  708,  709,  710,  711,  712,  713,  714,  715,  716,  717,  718
  719,  720,  721,  722,  723,  724,  725,  726,  727,  728,  729,  730,  731,  732,  733,  734
  735,  736,  737,  738,  739,  740,  741,  742,  743,  744,  745,  746,  747,  748,  749,  750
  751,  752,  753,  754,  755,  756,  757,  758,  759,  760,  761,  762,  763,  764,  765,  766
  767,  768,  769,  770,  771,  772,  773,  774,  775,  776,  777,  778,  779,  780, 1197, 1198
 1199, 1200, 1201, 1202, 1203, 1204, 1205, 1206, 1207, 1208, 1209, 1210, 1211, 1212, 1213, 1214
 1215, 1216, 1217, 1218, 1219, 1220, 1221, 1222, 1223, 1224, 1225, 1226, 1227, 1228, 1229, 1230
** ... 6 like lines cut
** Section: lower_flange
*Shell Section, elset=lower_flange, material=steel_structural, temperature=5, offset=SPOS
9., 5
** Section: uppper_flange
*Shell Section, elset=upper_flange, material=steel_structural, temperature=5, offset=SNEG
9., 5
** Section: web
*Shell Section, elset=web, material=steel_structural, temperature=5
6., 5
*End Instance
**  
*Nset, nset=BC-left-pin, instance=beam-1
  30,  31,  33, 589, 640
*Nset, nset=BC-restrined_nodesX, instance=beam-1
  13,  14,  27,  28,  35,  36, 190, 533, 572, 573, 574, 575, 576, 654, 655, 656
 657, 658, 671, 684
*Nset, nset=BC-right-roller, instance=beam-1
   3,   4,  34,  50, 653
*Nset, nset=BC_all_restrained_nodesX, instance=beam-1
   8,   9,  10,  11,  12,  13,  14,  18,  19,  20,  24,  25,  26,  27,  28,  29
  35,  36, 115, 141, 177, 190, 305, 361, 464, 520, 533, 571, 572, 573, 574, 575
 576, 654, 655, 656, 657, 658, 671, 684
*Nset, nset=all_nodes, instance=beam-1, generate
    1,  1575,     1
*Nset, nset=all_surface, instance=beam-1, generate
    1,  1575,     1
*Elset, elset=all_surface, instance=beam-1, generate
    1,  1456,     1
*Nset, nset=loads_nodes, instance=beam-1
   8,   9,  10,  11,  12,  18,  19,  20,  24,  25,  26,  29, 115, 141, 177, 305
 361, 464, 520, 571
*Elset, elset=_exposed-1_SPOS, internal, instance=beam-1
    1,    2,    3,    4,    5,    6,    7,    8,    9,   10,   11,   12,   13,   14,   15,   16
   17,   18,   19,   20,   21,   22,   23,   24,   25,   26,   27,   28,   29,   30,   31,   32
   33,   34,   35,   36,   37,   38,   39,   40,   41,   42,   43,   44,   45,   46,   47,   48
   49,   50,   51,   52,   53,   54,   55,   56,   57,   58,   59,   60,   61,   62,   63,   64
   65,   66,   67,   68,   69,   70,   71,   72,   73,   74,   75,   76,   77,   78,  131,  132
  133,  134,  135,  136,  137,  138,  139,  140,  141,  142,  143,  144,  145,  146,  147,  148
  149,  150,  151,  152,  153,  154,  155,  156,  157,  158,  159,  160,  161,  162,  163,  164
  165,  166,  167,  168,  169,  170,  171,  172,  173,  174,  175,  176,  177,  178,  179,  180
  181,  182,  183,  184,  185,  186,  187,  188,  189,  190,  191,  192,  193,  194,  195,  196
  197,  198,  199,  200,  201,  202,  203,  204,  205,  206,  207,  208,  209,  210,  211,  212
  213,  214,  215,  216,  217,  218,  219,  220,  221,  222,  223,  224,  225,  226,  227,  228
  229,  230,  231,  232,  233,  234,  235,  236,  237,  238,  239,  240,  241,  242,  243,  244
  245,  246,  247,  248,  249,  250,  251,  252,  253,  254,  255,  256,  257,  258,  259,  260
  261,  262,  263,  264,  265,  266,  267,  268,  269,  270,  271,  272,  273,  274,  275,  276
  277,  278,  279,  280,  281,  282,  283,  284,  285,  286,  313,  314,  315,  316,  317,  318
  319,  320,  321,  322,  323,  324,  325,  326,  327,  328,  329,  330,  331,  332,  333,  334
  335,  336,  337,  338,  339,  340,  341,  342,  343,  344,  345,  346,  347,  348,  349,  350
  351,  352,  353,  354,  355,  356,  357,  358,  359,  360,  361,  362,  363,  364,  365,  366
  367,  368,  369,  370,  371,  372,  373,  374,  375,  376,  377,  378,  379,  380,  381,  382
  383,  384,  385,  386,  387,  388,  389,  390,  391,  392,  393,  394,  395,  396,  397,  398
** ... 45 like lines cut
*Surface, type=ELEMENT, name=exposed-1
_exposed-1_SPOS, SPOS
*Elset, elset=_exposed-2_SNEG, internal, instance=beam-1
    1,    2,    3,    4,    5,    6,    7,    8,    9,   10,   11,   12,   13,   14,   15,   16
   17,   18,   19,   20,   21,   22,   23,   24,   25,   26,   27,   28,   29,   30,   31,   32
   33,   34,   35,   36,   37,   38,   39,   40,   41,   42,   43,   44,   45,   46,   47,   48
   49,   50,   51,   52,   53,   54,   55,   56,   57,   58,   59,   60,   61,   62,   63,   64
   65,   66,   67,   68,   69,   70,   71,   72,   73,   74,   75,   76,   77,   78,  131,  132
  133,  134,  135,  136,  137,  138,  139,  140,  141,  142,  143,  144,  145,  146,  147,  148
  149,  150,  151,  152,  153,  154,  155,  156,  157,  158,  159,  160,  161,  162,  163,  164
  165,  166,  167,  168,  169,  170,  171,  172,  173,  174,  175,  176,  177,  178,  179,  180
  181,  182,  183,  184,  185,  186,  187,  188,  189,  190,  191,  192,  193,  194,  195,  196
  197,  198,  199,  200,  201,  202,  203,  204,  205,  206,  207,  208,  209,  210,  211,  212
  213,  214,  215,  216,  217,  218,  219,  220,  221,  222,  223,  224,  225,  226,  227,  228
  229,  230,  231,  232,  233,  234,  235,  236,  237,  238,  239,  240,  241,  242,  243,  244
  245,  246,  247,  248,  249,  250,  251,  252,  253,  254,  255,  256,  257,  258,  259,  260
  261,  262,  263,  264,  265,  266,  267,  268,  269,  270,  271,  272,  273,  274,  275,  276
  277,  278,  279,  280,  281,  282,  283,  284,  285,  286,  313,  314,  315,  316,  317,  318
  319,  320,  321,  322,  323,  324,  325,  326,  327,  328,  329,  330,  331,  332,  333,  334
  335,  336,  337,  338,  339,  340,  341,  342,  343,  344,  345,  346,  347,  348,  349,  350
  351,  352,  353,  354,  355,  356,  357,  358,  359,  360,  361,  362,  363,  364,  365,  366
  367,  368,  369,  370,  371,  372,  373,  374,  375,  376,  377,  378,  379,  380,  381,  382
  383,  384,  385,  386,  387,  388,  389,  390,  391,  392,  393,  394,  395,  396,  397,  398
** ... 45 like lines cut
*Surface, type=ELEMENT, name=exposed-2
_exposed-2_SNEG, SNEG
*Elset, elset=_exposed-top_SPOS, internal, instance=beam-1
   79,   80,   81,   82,   83,   84,   85,   86,   87,   88,   89,   90,   91,   92,   93,   94
   95,   96,   97,   98,   99,  100,  101,  102,  103,  104,  105,  106,  107,  108,  109,  110
  111,  112,  113,  114,  115,  116,  117,  118,  119,  120,  121,  122,  123,  124,  125,  126
  127,  128,  129,  130,  287,  288,  289,  290,  291,  292,  293,  294,  295,  296,  297,  298
  299,  300,  301,  302,  303,  304,  305,  306,  307,  308,  309,  310,  311,  312,  417,  418
  419,  420,  421,  422,  423,  424,  425,  426,  427,  428,  429,  430,  431,  432,  433,  434
  435,  436,  437,  438,  439,  440,  441,  442,  443,  444,  445,  446,  447,  448,  449,  450
  451,  452,  453,  454,  455,  456,  457,  458,  459,  460,  461,  462,  463,  464,  465,  466
  467,  468,  625,  626,  627,  628,  629,  630,  631,  632,  633,  634,  635,  636,  637,  638
  639,  640,  641,  642,  643,  644,  645,  646,  647,  648,  649,  650,  651,  652,  653,  654
  655,  656,  657,  658,  659,  660,  661,  662,  663,  664,  665,  666,  667,  668,  669,  670
  671,  672,  673,  674,  675,  676,  781,  782,  783,  784,  785,  786,  787,  788,  789,  790
  791,  792,  793,  794,  795,  796,  797,  798,  799,  800,  801,  802,  803,  804,  805,  806
  807,  808,  809,  810,  811,  812,  813,  814,  815,  816,  817,  818,  819,  820,  821,  822
  823,  824,  825,  826,  827,  828,  829,  830,  831,  832,  989,  990,  991,  992,  993,  994
  995,  996,  997,  998,  999, 1000, 1001, 1002, 1003, 1004, 1005, 1006, 1007, 1008, 1009, 1010
 1011, 1012, 1013, 1014, 1015, 1016, 1017, 1018, 1019, 1020, 1021, 1022, 1023, 1024, 1025, 1026
 1027, 1028, 1029, 1030, 1031, 1032, 1033, 1034, 1035, 1036, 1037, 1038, 1039, 1040, 1041, 1042
 1043, 1044, 1045, 1046, 1047, 1048, 1049, 1050, 1051, 1052, 1053, 1054, 1055, 1056, 1057, 1058
 1059, 1060, 1061, 1062, 1063, 1064, 1065, 1066, 1067, 1068, 1069, 1070, 1071, 1072, 1073, 1074
** ... 6 like lines cut
*Surface, type=ELEMENT, name=exposed-top
_exposed-top_SPOS, SPOS
*Elset, elset=_unexposed-top_SNEG, internal, instance=beam-1
   79,   80,   81,   82,   83,   84,   85,   86,   87,   88,   89,   90,   91,   92,   93,   94
   95,   96,   97,   98,   99,  100,  101,  102,  103,  104,  105,  106,  107,  108,  109,  110
  111,  112,  113,  114,  115,  116,  117,  118,  119,  120,  121,  122,  123,  124,  125,  126
  127,  128,  129,  130,  287,  288,  289,  290,  291,  292,  293,  294,  295,  296,  297,  298
  299,  300,  301,  302,  303,  304,  305,  306,  307,  308,  309,  310,  311,  312,  417,  418
  419,  420,  421,  422,  423,  424,  425,  426,  427,  428,  429,  430,  431,  432,  433,  434
  435,  436,  437,  438,  439,  440,  441,  442,  443,  444,  445,  446,  447,  448,  449,  450
  451,  452,  453,  454,  455,  456,  457,  458,  459,  460,  461,  462,  463,  464,  465,  466
  467,  468,  625,  626,  627,  628,  629,  630,  631,  632,  633,  634,  635,  636,  637,  638
  639,  640,  641,  642,  643,  644,  645,  646,  647,  648,  649,  650,  651,  652,  653,  654
  655,  656,  657,  658,  659,  660,  661,  662,  663,  664,  665,  666,  667,  668,  669,  670
  671,  672,  673,  674,  675,  676,  781,  782,  783,  784,  785,  786,  787,  788,  789,  790
  791,  792,  793,  794,  795,  796,  797,  798,  799,  800,  801,  802,  803,  804,  805,  806
  807,  808,  809,  810,  811,  812,  813,  814,  815,  816,  817,  818,  819,  820,  821,  822
  823,  824,  825,  826,  827,  828,  829,  830,  831,  832,  989,  990,  991,  992,  993,  994
  995,  996,  997,  998,  999, 1000, 1001, 1002, 1003, 1004, 1005, 1006, 1007, 1008, 1009, 1010
 1011, 1012, 1013, 1014, 1015, 1016, 1017, 1018, 1019, 1020, 1021, 1022, 1023, 1024, 1025, 1026
 1027, 1028, 1029, 1030, 1031, 1032, 1033, 1034, 1035, 1036, 1037, 1038, 1039, 1040, 1041, 1042
 1043, 1044, 1045, 1046, 1047, 1048, 1049, 1050, 1051, 1052, 1053, 1054, 1055, 1056, 1057, 1058
 1059, 1060, 1061, 1062, 1063, 1064, 1065, 1066, 1067, 1068, 1069, 1070, 1071, 1072, 1073, 1074
** ... 6 like lines cut
*Surface, type=ELEMENT, name=unexposed-top
_unexposed-top_SNEG, SNEG
*End Assembly
**===============================================================================
**Data line to defined temperature histories from thermal response model.
**Data line to define the time-temperature curve for beam sections temperature points
** Data line to define mechanical loading curve for mechanical loading step and temperature loading step.
** Data line to define the fire temperature curve  using keyword *Amplitdue. Simulation time vs temperature
**===============================================================================
*Amplitude, name=cong_fire, time=TOTAL TIME
             0.,             20.,             24.,            200.,             75.,           335.3,            150.,            400.
           270.,            450.,            600.,            500.,            960.,            550.,           1200.,            550.
          1320.,            550.,           1380.,            600.,           1800.,           635.3,           2400.,            700.
          3000.,           741.2,           3450.,           764.7
*Amplitude, name=loading_curve, time=TOTAL TIME
             0.,              0.,              2.,              1.,             20.,              1.
*Amplitude, name=temp_web_middle_result_from_2D_temp_analysis, time=TOTAL TIME
             0.,              0.,              2.,              0.,           2.005,      0.02723374,            2.01,     0.027268062
          2.015,     0.027322271,           2.025,     0.027514209,           2.045,     0.028250413,            2.07,     0.029757454
          2.095,     0.031894601,            2.12,     0.034711128,           2.145,     0.037804479,            2.17,     0.041147485
          2.195,     0.044737365,            2.22,     0.048575046,           2.245,     0.052662614,            2.27,      0.05700272
          2.295,     0.061598387,            2.32,     0.066452947,           2.345,     0.071569985,            2.37,     0.076953315
          2.395,     0.082430346,            2.42,     0.087944201,           2.445,     0.093487862,            2.47,     0.099058505
          2.495,      0.10465447,            2.52,     0.110275774,           2.545,     0.115929223,            2.57,     0.121613963
          2.595,     0.127329738,            2.62,     0.133076921,           2.645,      0.13885986,            2.67,     0.144679402
          2.695,     0.150535467,            2.72,     0.156428081,           2.745,     0.162357318,            2.77,     0.168275632
          2.795,     0.174167359,            2.82,     0.180030838,           2.845,     0.185866318,            2.87,     0.191674341
          2.895,     0.197454854,            2.92,     0.203208007,           2.945,     0.208933975,            2.97,     0.214632957
          2.995,     0.220305152,            3.02,     0.225951922,           3.045,     0.231573663,            3.07,     0.237170567
          3.095,     0.242742823,            3.12,     0.248290665,           3.145,     0.253814349,            3.17,     0.259314174
          3.195,     0.264790533,            3.22,     0.270244444,           3.245,     0.275676108,            3.27,     0.281085726
          3.295,     0.286473478,            3.32,     0.291839584,           3.345,     0.297184226,            3.37,     0.302477929
          3.395,     0.307711065,            3.42,     0.312882907,           3.445,     0.317993608,            3.47,     0.323043576
          3.495,     0.328033309,            3.52,     0.332963355,           3.545,       0.3378343,            3.57,     0.342646673
          3.595,     0.347400596,            3.62,     0.352096749,           3.645,     0.356736039,            3.67,     0.361319143
          3.695,     0.365846781,            3.72,     0.370319695,           3.745,     0.374738528,            3.77,     0.379104027
          3.795,     0.383416871,            3.82,     0.387677724,           3.845,     0.391887258,            3.87,      0.39604577
** ... 162 like lines cut
** 
** MATERIALS
**===============================================================================
** ** ----------------------------------------------------------------** ----------------------------------------------------------------** ----------------------------------------------------------------
** MATERIALS: Materials properties definition
**=============================================================================== 
***MATERIAL, NAME=NAME_OF_MATERIAL
**DENSITY
**data line to define density of the material
**EXPANSION
**data line to define temperature-dependent expansion
**ELASTIC
**data line to define temperature-dependent elasticity
**PLASTIC
**data line to define temperature-dependent plasticity
**..
**similar definition approaches for defining multiple material properties) 
** ----------------------------------------------------------------*
**=============================================================================== 
** 
*Material, name=steel_structural
*Density
 7.85e-09,
*Elastic
200000.,  0.3,  20.
200000.,  0.3, 100.
180000.,  0.3, 200.
160000.,  0.3, 300.
140000.,  0.3, 400.
120000.,  0.3, 500.
 62000.,  0.3, 600.
 26000.,  0.3, 700.
 18000.,  0.3, 800.
 13500.,  0.3, 900.
  9000.,  0.3,1000.
  4500.,  0.3,1100.
     1.,  0.3,1200.
*Expansion
    1.2e-05,  20.
  1.248e-05, 100.
  1.288e-05, 200.
  1.328e-05, 300.
  1.368e-05, 400.
  1.408e-05, 500.
  1.448e-05, 600.
  1.488e-05, 700.
  1.508e-05, 750.
 1.4103e-05, 800.
 1.3095e-05, 860.
 1.3409e-05, 900.
 1.4082e-05,1000.
  1.463e-05,1100.
*Plastic
  304.8,         0.,        20.
  323.1, 0.00019707,        20.
  338.3,  0.0006361,        20.
   357.,   0.001561,        20.
  370.1,   0.002507,        20.
  380.7,   0.003465,        20.
  389.9,     0.0054,        20.
  396.7,   0.006375,        20.
  408.6,   0.007352,        20.
  413.4,   0.008333,        20.
  421.2,   0.010301,        20.
  429.2,   0.013269,        20.
  433.3,   0.016253,        20.
   434.,    0.01825,        20.
   492.,    0.14825,        20.
   492.,       0.45,        20.
  304.1,         0.,       100.
  323.1, 0.00019707,       100.
  338.3,  0.0006361,       100.
   357.,   0.001561,       100.
** ... 156 like lines cut
** 
** PHYSICAL CONSTANTS
** 
*Physical Constants, absolute zero=-273.16, stefan boltzmann=5.67e-08
** 
** BOUNDARY CONDITIONS
** 
**=============================================================================== 
** **Data line to define displacement, rotation, and symmetry boundary conditions.
**===============================================================================  
** Name: BC-1 Type: Displacement/Rotation
*Boundary
BC-left-pin, 1, 1
BC-left-pin, 2, 2
BC-left-pin, 3, 3
** Name: BC-2 Type: Displacement/Rotation
*Boundary
BC-right-roller, 2, 2
** Name: BC-3 Type: Displacement/Rotation
*Boundary
BC_all_restrained_nodesX, 1, 1
** 
** PREDEFINED FIELDS
**===============================================================================  
** Date line to define intial temperature fields and temperature fields due to fire.
**===============================================================================  
** 
** Name: initial_temp   Type: Temperature
*Initial Conditions, type=TEMPERATURE
all_nodes, 20.
** ----------------------------------------------------------------
**
**===============================================================================  
**
** STEP: mech-loading: Defining mechanical loading step 1
** *DYNAMIC, EXPLICIT
** Data lines to define explicit dynamics parameters and termination time
** *BULK VISCOSITY
** Data lines to define bulk viscosity parameters
** ----------------------------------------------------------------
** Defining loading
** *CLOAD, AMPLITUDE=NAME_OF_LOAD_CURVE
** Data line to define load amplitude and location (node or element surface)
** Data lines for output request
** *OUTPUT, FIELD, TIME INTERVAL=0.1, TIME MARKS=YES
** *NODE OUTPUT
** Data line to define quantities for nodal output request
** *ELEMENT OUTPUT
** Data line to define quantities for element output request
** Data line for history output:
** *OUTPUT, HISTORY, VARIABLE=NAME_OF_VARIABLES, TIME INTERVAL=0.1
**===============================================================================  
** STEP: mechanical_loading
** 
*Step, name=mechanical_loading, nlgeom=YES
*Dynamic, Explicit
, 2.
*Bulk Viscosity
0.06, 1.2
** 
** LOADS
** 
** Name: mechanical_loading   Type: Concentrated force
*Cload, amplitude=loading_curve
loads_nodes, 2, -2100.
** 
** OUTPUT REQUESTS
** 
*Restart, write, number interval=1, time marks=NO
** 
** FIELD OUTPUT: F-Output-1
** 
*Output, field, time interval=0.1
*Node Output
A, U, V
*Element Output, directions=YES
EVF, TEMP
** 
** HISTORY OUTPUT: H-Output-1
** 
*Output, history, variable=PRESELECT
*End Step
** ----------------------------------------------------------------
** 
** STEP: fire-heating
** 
*Step, name=fire-heating, nlgeom=YES
*Dynamic, Explicit
, 18.
*Bulk Viscosity
0.06, 1.2
** 
** PREDEFINED FIELDS
** 
** Name: fire_heating   Type: Temperature
*Temperature, file="C:\Users\dilip1\Desktop\Feedback input files\final_test_simple beam\temperature_shell.odb", bstep=1, binc=1
** 
** OUTPUT REQUESTS
** 
*Restart, write, number interval=1, time marks=NO
** 
** FIELD OUTPUT: F-Output-1
** 
*Output, field, time interval=0.1
*Node Output
A, U, V
*Element Output, directions=YES
EVF, TEMP
** 
** HISTORY OUTPUT: H-Output-1
** 
*Output, history, variable=PRESELECT
*End Step
